/*--------------------------------*- C++ -*----------------------------------*\
| =========                 |                                                 |
| \\      /  F ield         | OpenFOAM: The Open Source CFD Toolbox           |
|  \\    /   O peration     | Version:  v2006                                 |
|   \\  /    A nd           | Website:  www.openfoam.com                      |
|    \\/     M anipulation  |                                                 |
\*---------------------------------------------------------------------------*/
FoamFile
{
    version     2.0;
    format      binary;
    class       polyBoundaryMesh;
    arch        "LSB;label=32;scalar=64";
    location    "constant/polyMesh";
    object      boundary;
}
// * * * * * * * * * * * * * * * * * * * * * * * * * * * * * * * * * * * * * //

5
(
    airfoilDown
    {
        type            wall;
        inGroups        1(wall);
        nFaces          39;
        startFace       8607;
    }
    airfoilUp
    {
        type            wall;
        inGroups        1(wall);
        nFaces          39;
        startFace       8646;
    }
    fairing
    {
        type            wall;
        inGroups        1(wall);
        nFaces          19;
        startFace       8685;
    }
    farfield
    {
        type            patch;
        nFaces          44;
        startFace       8704;
    }
    BaseAndTop
    {
        type            empty;
        inGroups        1(empty);
        nFaces          11570;
        startFace       8748;
    }
)

// ************************************************************************* //
